Data_Gen/Output_Model/case_ieee123_storage_1079.m
function mpc = case_ieee123_storage_1079
%CASE_IEEE123_STORAGE_1079

%% MATPOWER Case Format : Version 2
mpc.version = '2';

%%-----  Power Flow Data  -----%%
%% system MVA base
mpc.baseMVA = 1;

%% bus data
%	bus_i	type	Pd	Qd	Gs	Bs	area	Vm	Va	baseKV	zone	Vmax	Vmin
mpc.bus = [
	1	3	-0.002413	-0.0012065	0	0	1	1	0	4.16	1	1.2	0.8;
	2	1	0.004189	0.0020945	0	0	1	1	0	4.16	1	1.2	0.8;
	3	1	0.000462	0.000231	0	0	1	1	0	4.16	1	1.2	0.8;
	4	1	-2.9e-05	-1.45e-05	0	0	1	1	0	4.16	1	1.2	0.8;
	5	1	-0.001291	-0.0006455	0	0	1	1	0	4.16	1	1.2	0.8;
	6	1	1e-10	5e-11	0	0	1	1	0	4.16	1	1.2	0.8;
	7	1	1e-10	5e-11	0	0	1	1	0	4.16	1	1.2	0.8;
	8	1	0.000825	0.0004125	0	0	1	1	0	4.16	1	1.2	0.8;
	9	1	-0.002116	-0.001058	0	0	1	1	0	4.16	1	1.2	0.8;
	10	1	0.002495	0.0012475	0	0	1	1	0	4.16	1	1.2	0.8;
	11	1	-0.001131	-0.0005655	0	0	1	1	0	4.16	1	1.2	0.8;
	12	1	-0.001267	-0.0006335	0	0	1	1	0	4.16	1	1.2	0.8;
	13	1	-0.001286	-0.000643	0	0	1	1	0	4.16	1	1.2	0.8;
	14	1	1e-10	5e-11	0	0	1	1	0	4.16	1	1.2	0.8;
	15	1	-0.001856	-0.000928	0	0	1	1	0	4.16	1	1.2	0.8;
	16	1	-0.00155	-0.000775	0	0	1	1	0	4.16	1	1.2	0.8;
	17	1	-0.001067	-0.0005335	0	0	1	1	0	4.16	1	1.2	0.8;
	18	1	-0.001708	-0.000854	0	0	1	1	0	4.16	1	1.2	0.8;
	19	1	-0.00176	-0.00088	0	0	1	1	0	4.16	1	1.2	0.8;
	20	1	2e-06	1e-06	0	0	1	1	0	4.16	1	1.2	0.8;
	21	1	-0.000892	-0.000446	0	0	1	1	0	4.16	1	1.2	0.8;
	22	1	-0.000642	-0.000321	0	0	1	1	0	4.16	1	1.2	0.8;
	23	1	-0.000694	-0.000347	0	0	1	1	0	4.16	1	1.2	0.8;
	24	1	0.001314	0.000657	0	0	1	1	0	4.16	1	1.2	0.8;
	25	1	-0.000724	-0.000362	0	0	1	1	0	4.16	1	1.2	0.8;
	26	1	0.000131	6.55e-05	0	0	1	1	0	4.16	1	1.2	0.8;
	27	1	-0.000698	-0.000349	0	0	1	1	0	4.16	1	1.2	0.8;
	28	1	0.000354	0.000177	0	0	1	1	0	4.16	1	1.2	0.8;
	29	1	-0.001795	-0.0008975	0	0	1	1	0	4.16	1	1.2	0.8;
	30	1	-0.001568	-0.000784	0	0	1	1	0	4.16	1	1.2	0.8;
	31	1	-0.000522	-0.000261	0	0	1	1	0	4.16	1	1.2	0.8;
	32	1	-0.000614	-0.000307	0	0	1	1	0	4.16	1	1.2	0.8;
	33	1	-0.000836	-0.000418	0	0	1	1	0	4.16	1	1.2	0.8;
	34	1	-0.00218	-0.00109	0	0	1	1	0	4.16	1	1.2	0.8;
	35	1	-0.000959	-0.0004795	0	0	1	1	0	4.16	1	1.2	0.8;
	36	1	-0.001117	-0.0005585	0	0	1	1	0	4.16	1	1.2	0.8;
	37	1	-0.00014	-7e-05	0	0	1	1	0	4.16	1	1.2	0.8;
	38	1	-0.001304	-0.000652	0	0	1	1	0	4.16	1	1.2	0.8;
	39	1	-0.001824	-0.000912	0	0	1	1	0	4.16	1	1.2	0.8;
	40	1	-0.000808	-0.000404	0	0	1	1	0	4.16	1	1.2	0.8;
	41	1	-0.000861	-0.0004305	0	0	1	1	0	4.16	1	1.2	0.8;
	42	1	-0.002082	-0.001041	0	0	1	1	0	4.16	1	1.2	0.8;
	43	1	-0.001647	-0.0008235	0	0	1	1	0	4.16	1	1.2	0.8;
	44	1	-0.000347	-0.0001735	0	0	1	1	0	4.16	1	1.2	0.8;
	45	1	1e-10	5e-11	0	0	1	1	0	4.16	1	1.2	0.8;
	46	1	0.000341	0.0001705	0	0	1	1	0	4.16	1	1.2	0.8;
	47	1	1e-10	5e-11	0	0	1	1	0	4.16	1	1.2	0.8;
	48	1	1e-10	5e-11	0	0	1	1	0	4.16	1	1.2	0.8;
	49	1	0.000712	0.000356	0	0	1	1	0	4.16	1	1.2	0.8;
	50	1	-0.001193	-0.0005965	0	0	1	1	0	4.16	1	1.2	0.8;
	51	1	1e-10	5e-11	0	0	1	1	0	4.16	1	1.2	0.8;
	52	1	1e-10	5e-11	0	0	1	1	0	4.16	1	1.2	0.8;
	53	1	-0.001211	-0.0006055	0	0	1	1	0	4.16	1	1.2	0.8;
	54	1	1e-10	5e-11	0	0	1	1	0	4.16	1	1.2	0.8;
	55	1	1e-10	5e-11	0	0	1	1	0	4.16	1	1.2	0.8;
	56	1	0.0006	0.0003	0	0	1	1	0	4.16	1	1.2	0.8;
	57	1	1e-10	5e-11	0	0	1	1	0	4.16	1	1.2	0.8;
	58	1	1e-10	5e-11	0	0	1	1	0	4.16	1	1.2	0.8;
	59	1	0.000136	6.8e-05	0	0	1	1	0	4.16	1	1.2	0.8;
	60	1	-0.001534	-0.000767	0	0	1	1	0	4.16	1	1.2	0.8;
];

%% generator data
%	bus	Pg	Qg	Qmax	Qmin	Vg	mBase	status	Pmax	Pmin	Pc1	Pc2	Qc1min	Qc1max	Qc2min	Qc2max	ramp_agc	ramp_10	ramp_30	ramp_q	apf
mpc.gen = [
	1	-0.0321049988	0	200	-200	1	1	1	200	-200	0	0	0	0	0	0	10	0	0	0	0;
];

%% branch data
%	fbus	tbus	r	x	b	rateA	rateB	rateC	ratio	angle	status	angmin	angmax
mpc.branch = [
	1	2	0.0013398623	0.0027450827	3.02770272e-08	100	100	100	0	0	1	-80	80;
	1	2	0.0013398623	0.0027450827	3.02770272e-08	100	100	100	0	0	1	-80	80;
	2	3	0.0013398623	0.0027450827	3.02770272e-08	100	100	100	0	0	1	-80	80;
	3	4	0.0013398623	0.0027450827	3.02770272e-08	100	100	100	0	0	1	-80	80;
	4	5	0.0013398623	0.0027450827	3.02770272e-08	100	100	100	0	0	1	-80	80;
	5	6	0.0013398623	0.0027450827	3.02770272e-08	100	100	100	0	0	1	-80	80;
	6	7	0.0013398623	0.0027450827	3.02770272e-08	100	100	100	0	0	1	-80	80;
	7	8	0.0013398623	0.0027450827	3.02770272e-08	100	100	100	0	0	1	-80	80;
	8	9	0.0013398623	0.0027450827	3.02770272e-08	100	100	100	0	0	1	-80	80;
	9	10	0.0013398623	0.0027450827	3.02770272e-08	100	100	100	0	0	1	-80	80;
	10	11	0.0013398623	0.0027450827	3.02770272e-08	100	100	100	0	0	1	-80	80;
	11	12	0.0013398623	0.0027450827	3.02770272e-08	100	100	100	0	0	1	-80	80;
	12	13	0.0013398623	0.0027450827	3.02770272e-08	100	100	100	0	0	1	-80	80;
	13	14	0.0013398623	0.0027450827	3.02770272e-08	100	100	100	0	0	1	-80	80;
	14	15	0.0013398623	0.0027450827	3.02770272e-08	100	100	100	0	0	1	-80	80;
	15	16	0.0013398623	0.0027450827	3.02770272e-08	100	100	100	0	0	1	-80	80;
	16	17	0.0013398623	0.0027450827	3.02770272e-08	100	100	100	0	0	1	-80	80;
	17	18	0.0013398623	0.0027450827	3.02770272e-08	100	100	100	0	0	1	-80	80;
	18	19	0.0013398623	0.0027450827	3.02770272e-08	100	100	100	0	0	1	-80	80;
	19	20	0.0013398623	0.0027450827	3.02770272e-08	100	100	100	0	0	1	-80	80;
	20	21	0.0013398623	0.0027450827	3.02770272e-08	100	100	100	0	0	1	-80	80;
	21	22	0.0013398623	0.0027450827	3.02770272e-08	100	100	100	0	0	1	-80	80;
	22	23	0.0013398623	0.0027450827	3.02770272e-08	100	100	100	0	0	1	-80	80;
	23	24	0.0013398623	0.0027450827	3.02770272e-08	100	100	100	0	0	1	-80	80;
	24	25	0.0013398623	0.0027450827	3.02770272e-08	100	100	100	0	0	1	-80	80;
	25	26	0.0013398623	0.0027450827	3.02770272e-08	100	100	100	0	0	1	-80	80;
	26	27	0.0013398623	0.0027450827	3.02770272e-08	100	100	100	0	0	1	-80	80;
	27	28	0.0013398623	0.0027450827	3.02770272e-08	100	100	100	0	0	1	-80	80;
	28	29	0.0013398623	0.0027450827	3.02770272e-08	100	100	100	0	0	1	-80	80;
	1	30	0.0013398623	0.0027450827	3.02770272e-08	100	100	100	0	0	1	-80	80;
	30	31	0.0013398623	0.0027450827	3.02770272e-08	100	100	100	0	0	1	-80	80;
	31	32	0.0013398623	0.0027450827	3.02770272e-08	100	100	100	0	0	1	-80	80;
	32	33	0.0013398623	0.0027450827	3.02770272e-08	100	100	100	0	0	1	-80	80;
	33	34	0.0013398623	0.0027450827	3.02770272e-08	100	100	100	0	0	1	-80	80;
	34	35	0.0013398623	0.0027450827	3.02770272e-08	100	100	100	0	0	1	-80	80;
	35	36	0.0013398623	0.0027450827	3.02770272e-08	100	100	100	0	0	1	-80	80;
	36	37	0.0013398623	0.0027450827	3.02770272e-08	100	100	100	0	0	1	-80	80;
	37	38	0.0013398623	0.0027450827	3.02770272e-08	100	100	100	0	0	1	-80	80;
	38	39	0.0013398623	0.0027450827	3.02770272e-08	100	100	100	0	0	1	-80	80;
	39	40	0.0013398623	0.0027450827	3.02770272e-08	100	100	100	0	0	1	-80	80;
	40	41	0.0013398623	0.0027450827	3.02770272e-08	100	100	100	0	0	1	-80	80;
	41	42	0.0013398623	0.0027450827	3.02770272e-08	100	100	100	0	0	1	-80	80;
	42	43	0.0013398623	0.0027450827	3.02770272e-08	100	100	100	0	0	1	-80	80;
	43	44	0.0013398623	0.0027450827	3.02770272e-08	100	100	100	0	0	1	-80	80;
	44	45	0.0013398623	0.0027450827	3.02770272e-08	100	100	100	0	0	1	-80	80;
	45	46	0.0013398623	0.0027450827	3.02770272e-08	100	100	100	0	0	1	-80	80;
	46	47	0.0013398623	0.0027450827	3.02770272e-08	100	100	100	0	0	1	-80	80;
	47	48	0.0013398623	0.0027450827	3.02770272e-08	100	100	100	0	0	1	-80	80;
	48	49	0.0013398623	0.0027450827	3.02770272e-08	100	100	100	0	0	1	-80	80;
	49	50	0.0013398623	0.0027450827	3.02770272e-08	100	100	100	0	0	1	-80	80;
	50	51	0.0013398623	0.0027450827	3.02770272e-08	100	100	100	0	0	1	-80	80;
	51	52	0.0013398623	0.0027450827	3.02770272e-08	100	100	100	0	0	1	-80	80;
	52	53	0.0013398623	0.0027450827	3.02770272e-08	100	100	100	0	0	1	-80	80;
	53	54	0.0013398623	0.0027450827	3.02770272e-08	100	100	100	0	0	1	-80	80;
	54	55	0.0013398623	0.0027450827	3.02770272e-08	100	100	100	0	0	1	-80	80;
	55	56	0.0013398623	0.0027450827	3.02770272e-08	100	100	100	0	0	1	-80	80;
	56	57	0.0013398623	0.0027450827	3.02770272e-08	100	100	100	0	0	1	-80	80;
	57	58	0.0013398623	0.0027450827	3.02770272e-08	100	100	100	0	0	1	-80	80;
	58	59	0.0013398623	0.0027450827	3.02770272e-08	100	100	100	0	0	1	-80	80;
	59	60	0.0013398623	0.0027450827	3.02770272e-08	100	100	100	0	0	1	-80	80;
];

%%-----  OPF Data  -----%%
%% generator cost data
%	1	startup	shutdown	n	x1	y1	...	xn	yn
%	2	startup	shutdown	n	c(n-1)	...	c0
mpc.gencost = [
	2	0	0	3	1	1	0;
];
     %% storage data
 % hours;
mpc.time_elapsed = 0.0167
